#P HF/6-31G Cube=(Cards,Orbitals)

Gaussian input for ammonia with nonorthogonal grid

0 1
7  0.000000  0.000000  0.116489
1  0.000000  0.939731 -0.271808
1  0.813831 -0.469865 -0.271808
1 -0.813831 -0.469865 -0.271808

NH3.cube
  -20    0.0000000   0.0000000   2.5000000
   40    0.0000000   0.1000000  -0.0500000
   40    0.0866025  -0.0500000  -0.0500000
   40   -0.0866025  -0.0500000  -0.0500000
all

